#!/bin/sh
/home/sechw/simplescalar/simplesim-3.0/sim-safe qsort_small input_small.dat > output_small_safe.txt

/home/sechw/simplescalar/simplesim-3.0/sim-outorder qsort_small input_small.dat > output_small_outorder.txt
