#!/bin/sh
/home/sechw/simplescalar/simplesim-3.0/sim-outorder basicmath_small > output_small.txt
